40
Lattice="50.  0. 0. 0.  50.  0. 0. 0. 4.318" Properties=species:S:1:pos:R:3
C                    12.9275              8.9142              2.8791
C                    12.7311             10.1544              3.5976
C                    12.9275              8.9142              1.4386
C                    12.1610             11.2732              2.8791
C                    11.2731             12.1611              3.5976
C                    12.7311             10.1544              0.7201
C                    12.1610             11.2732              1.4386
C                    10.1542             12.7312              2.8791
C                     8.9140             12.9276              3.5976
C                    11.2731             12.1611              0.7201
C                    10.1542             12.7312              1.4386
C                     7.6738             12.7311              2.8791
C                     6.5550             12.1610              3.5976
C                     8.9140             12.9276              0.7201
C                     7.6738             12.7311              1.4386
C                     5.6671             11.2731              2.8791
C                     5.0970             10.1543              3.5976
C                     6.5550             12.1610              0.7201
C                     5.6671             11.2731              1.4386
C                     4.9006              8.9141              2.8791
C                     5.0971              7.6738              3.5976
C                     5.0970             10.1543              0.7201
C                     4.9006              8.9141              1.4386
C                     5.6672              6.5550              2.8791
C                     6.5551              5.6671              3.5976
C                     5.0971              7.6738              0.7201
C                     5.6672              6.5550              1.4386
C                     7.6739              5.0971              2.8791
C                     8.9141              4.9007              3.5976
C                     6.5551              5.6671              0.7201
C                     7.6739              5.0971              1.4386
C                    10.1544              5.0971              2.8791
C                    11.2732              5.6672              3.5976
C                     8.9141              4.9007              0.7201
C                    10.1544              5.0971              1.4386
C                    12.1611              6.5551              2.8791
C                    12.7311              7.6740              3.5976
C                    11.2732              5.6672              0.7201
C                    12.1611              6.5551              1.4386
C                    12.7311              7.6740              0.7201
