54
Lattice="0.0 5.349 5.349 5.349 0.0 5.349 5.349 5.349 0.0" Properties=species:S:1:pos:R:3 pbc="T T T"
C       0.00000000       0.00000000       0.00000000 
C       0.89150000       0.89150000       0.89150000 
C       1.78300000       1.78300000       0.00000000 
C       2.67450000       2.67450000       0.89150000 
C       3.56600000       3.56600000       0.00000000 
C       4.45750000       4.45750000       0.89150000 
C       1.78300000       0.00000000       1.78300000 
C       2.67450000       0.89150000       2.67450000 
C       3.56600000       1.78300000       1.78300000 
C       4.45750000       2.67450000       2.67450000 
C       5.34900000       3.56600000       1.78300000 
C       6.24050000       4.45750000       2.67450000 
C       3.56600000       0.00000000       3.56600000 
C       4.45750000       0.89150000       4.45750000 
C       5.34900000       1.78300000       3.56600000 
C       6.24050000       2.67450000       4.45750000 
C       7.13200000       3.56600000       3.56600000 
C       8.02350000       4.45750000       4.45750000 
C       0.00000000       1.78300000       1.78300000 
C       0.89150000       2.67450000       2.67450000 
C       1.78300000       3.56600000       1.78300000 
C       2.67450000       4.45750000       2.67450000 
C       3.56600000       5.34900000       1.78300000 
C       4.45750000       6.24050000       2.67450000 
C       1.78300000       1.78300000       3.56600000 
C       2.67450000       2.67450000       4.45750000 
C       3.56600000       3.56600000       3.56600000 
C       4.45750000       4.45750000       4.45750000 
C       5.34900000       5.34900000       3.56600000 
C       6.24050000       6.24050000       4.45750000 
C       3.56600000       1.78300000       5.34900000 
C       4.45750000       2.67450000       6.24050000 
C       5.34900000       3.56600000       5.34900000 
C       6.24050000       4.45750000       6.24050000 
C       7.13200000       5.34900000       5.34900000 
C       8.02350000       6.24050000       6.24050000 
C       0.00000000       3.56600000       3.56600000 
C       0.89150000       4.45750000       4.45750000 
C       1.78300000       5.34900000       3.56600000 
C       2.67450000       6.24050000       4.45750000 
C       3.56600000       7.13200000       3.56600000 
C       4.45750000       8.02350000       4.45750000 
C       1.78300000       3.56600000       5.34900000 
C       2.67450000       4.45750000       6.24050000 
C       3.56600000       5.34900000       5.34900000 
C       4.45750000       6.24050000       6.24050000 
C       5.34900000       7.13200000       5.34900000 
C       6.24050000       8.02350000       6.24050000 
C       3.56600000       3.56600000       7.13200000 
C       4.45750000       4.45750000       8.02350000 
C       5.34900000       5.34900000       7.13200000 
C       6.24050000       6.24050000       8.02350000 
C       7.13200000       7.13200000       7.13200000 
C       8.02350000       8.02350000       8.02350000 
