600
Lattice="62.5 0.0 0.0 -14.999999999999995 25.98076211353316 0.0 0.0 0.0 40.0" Properties=species:S:1:pos:R:3 pbc="T T T"
C        0.00000000       0.00000000       0.00000000
C        0.00000000       1.44337567       0.00000000
C       -1.25000000       2.16506351       0.00000000
C       -1.25000000       3.60843918       0.00000000
C       -2.50000000       4.33012702       0.00000000
C       -2.50000000       5.77350269       0.00000000
C       -3.75000000       6.49519053       0.00000000
C       -3.75000000       7.93856620       0.00000000
C       -5.00000000       8.66025404       0.00000000
C       -5.00000000      10.10362971       0.00000000
C       -6.25000000      10.82531755       0.00000000
C       -6.25000000      12.26869322       0.00000000
C       -7.50000000      12.99038106       0.00000000
C       -7.50000000      14.43375673       0.00000000
C       -8.75000000      15.15544457       0.00000000
C       -8.75000000      16.59882024       0.00000000
C      -10.00000000      17.32050808       0.00000000
C      -10.00000000      18.76388375       0.00000000
C      -11.25000000      19.48557159       0.00000000
C      -11.25000000      20.92894726       0.00000000
C      -12.50000000      21.65063509       0.00000000
C      -12.50000000      23.09401077       0.00000000
C      -13.75000000      23.81569860       0.00000000
C      -13.75000000      25.25907428       0.00000000
C        2.50000000       0.00000000       0.00000000
C        2.50000000       1.44337567       0.00000000
C        1.25000000       2.16506351       0.00000000
C        1.25000000       3.60843918       0.00000000
C        0.00000000       4.33012702       0.00000000
C        0.00000000       5.77350269       0.00000000
C       -1.25000000       6.49519053       0.00000000
C       -1.25000000       7.93856620       0.00000000
C       -2.50000000       8.66025404       0.00000000
C       -2.50000000      10.10362971       0.00000000
C       -3.75000000      10.82531755       0.00000000
C       -3.75000000      12.26869322       0.00000000
C       -5.00000000      12.99038106       0.00000000
C       -5.00000000      14.43375673       0.00000000
C       -6.25000000      15.15544457       0.00000000
C       -6.25000000      16.59882024       0.00000000
C       -7.50000000      17.32050808       0.00000000
C       -7.50000000      18.76388375       0.00000000
C       -8.75000000      19.48557159       0.00000000
C       -8.75000000      20.92894726       0.00000000
C      -10.00000000      21.65063509       0.00000000
C      -10.00000000      23.09401077       0.00000000
C      -11.25000000      23.81569860       0.00000000
C      -11.25000000      25.25907428       0.00000000
C        5.00000000       0.00000000       0.00000000
C        5.00000000       1.44337567       0.00000000
C        3.75000000       2.16506351       0.00000000
C        3.75000000       3.60843918       0.00000000
C        2.50000000       4.33012702       0.00000000
C        2.50000000       5.77350269       0.00000000
C        1.25000000       6.49519053       0.00000000
C        1.25000000       7.93856620       0.00000000
C        0.00000000       8.66025404       0.00000000
C        0.00000000      10.10362971       0.00000000
C       -1.25000000      10.82531755       0.00000000
C       -1.25000000      12.26869322       0.00000000
C       -2.50000000      12.99038106       0.00000000
C       -2.50000000      14.43375673       0.00000000
C       -3.75000000      15.15544457       0.00000000
C       -3.75000000      16.59882024       0.00000000
C       -5.00000000      17.32050808       0.00000000
C       -5.00000000      18.76388375       0.00000000
C       -6.25000000      19.48557159       0.00000000
C       -6.25000000      20.92894726       0.00000000
C       -7.50000000      21.65063509       0.00000000
C       -7.50000000      23.09401077       0.00000000
C       -8.75000000      23.81569860       0.00000000
C       -8.75000000      25.25907428       0.00000000
C        7.50000000       0.00000000       0.00000000
C        7.50000000       1.44337567       0.00000000
C        6.25000000       2.16506351       0.00000000
C        6.25000000       3.60843918       0.00000000
C        5.00000000       4.33012702       0.00000000
C        5.00000000       5.77350269       0.00000000
C        3.75000000       6.49519053       0.00000000
C        3.75000000       7.93856620       0.00000000
C        2.50000000       8.66025404       0.00000000
C        2.50000000      10.10362971       0.00000000
C        1.25000000      10.82531755       0.00000000
C        1.25000000      12.26869322       0.00000000
C        0.00000000      12.99038106       0.00000000
C        0.00000000      14.43375673       0.00000000
C       -1.25000000      15.15544457       0.00000000
C       -1.25000000      16.59882024       0.00000000
C       -2.50000000      17.32050808       0.00000000
C       -2.50000000      18.76388375       0.00000000
C       -3.75000000      19.48557159       0.00000000
C       -3.75000000      20.92894726       0.00000000
C       -5.00000000      21.65063509       0.00000000
C       -5.00000000      23.09401077       0.00000000
C       -6.25000000      23.81569860       0.00000000
C       -6.25000000      25.25907428       0.00000000
C       10.00000000       0.00000000       0.00000000
C       10.00000000       1.44337567       0.00000000
C        8.75000000       2.16506351       0.00000000
C        8.75000000       3.60843918       0.00000000
C        7.50000000       4.33012702       0.00000000
C        7.50000000       5.77350269       0.00000000
C        6.25000000       6.49519053       0.00000000
C        6.25000000       7.93856620       0.00000000
C        5.00000000       8.66025404       0.00000000
C        5.00000000      10.10362971       0.00000000
C        3.75000000      10.82531755       0.00000000
C        3.75000000      12.26869322       0.00000000
C        2.50000000      12.99038106       0.00000000
C        2.50000000      14.43375673       0.00000000
C        1.25000000      15.15544457       0.00000000
C        1.25000000      16.59882024       0.00000000
C        0.00000000      17.32050808       0.00000000
C        0.00000000      18.76388375       0.00000000
C       -1.25000000      19.48557159       0.00000000
C       -1.25000000      20.92894726       0.00000000
C       -2.50000000      21.65063509       0.00000000
C       -2.50000000      23.09401077       0.00000000
C       -3.75000000      23.81569860       0.00000000
C       -3.75000000      25.25907428       0.00000000
C       12.50000000       0.00000000       0.00000000
C       12.50000000       1.44337567       0.00000000
C       11.25000000       2.16506351       0.00000000
C       11.25000000       3.60843918       0.00000000
C       10.00000000       4.33012702       0.00000000
C       10.00000000       5.77350269       0.00000000
C        8.75000000       6.49519053       0.00000000
C        8.75000000       7.93856620       0.00000000
C        7.50000000       8.66025404       0.00000000
C        7.50000000      10.10362971       0.00000000
C        6.25000000      10.82531755       0.00000000
C        6.25000000      12.26869322       0.00000000
C        5.00000000      12.99038106       0.00000000
C        5.00000000      14.43375673       0.00000000
C        3.75000000      15.15544457       0.00000000
C        3.75000000      16.59882024       0.00000000
C        2.50000000      17.32050808       0.00000000
C        2.50000000      18.76388375       0.00000000
C        1.25000000      19.48557159       0.00000000
C        1.25000000      20.92894726       0.00000000
C        0.00000000      21.65063509       0.00000000
C        0.00000000      23.09401077       0.00000000
C       -1.25000000      23.81569860       0.00000000
C       -1.25000000      25.25907428       0.00000000
C       15.00000000       0.00000000       0.00000000
C       15.00000000       1.44337567       0.00000000
C       13.75000000       2.16506351       0.00000000
C       13.75000000       3.60843918       0.00000000
C       12.50000000       4.33012702       0.00000000
C       12.50000000       5.77350269       0.00000000
C       11.25000000       6.49519053       0.00000000
C       11.25000000       7.93856620       0.00000000
C       10.00000000       8.66025404       0.00000000
C       10.00000000      10.10362971       0.00000000
C        8.75000000      10.82531755       0.00000000
C        8.75000000      12.26869322       0.00000000
C        7.50000000      12.99038106       0.00000000
C        7.50000000      14.43375673       0.00000000
C        6.25000000      15.15544457       0.00000000
C        6.25000000      16.59882024       0.00000000
C        5.00000000      17.32050808       0.00000000
C        5.00000000      18.76388375       0.00000000
C        3.75000000      19.48557159       0.00000000
C        3.75000000      20.92894726       0.00000000
C        2.50000000      21.65063509       0.00000000
C        2.50000000      23.09401077       0.00000000
C        1.25000000      23.81569860       0.00000000
C        1.25000000      25.25907428       0.00000000
C       17.50000000       0.00000000       0.00000000
C       17.50000000       1.44337567       0.00000000
C       16.25000000       2.16506351       0.00000000
C       16.25000000       3.60843918       0.00000000
C       15.00000000       4.33012702       0.00000000
C       15.00000000       5.77350269       0.00000000
C       13.75000000       6.49519053       0.00000000
C       13.75000000       7.93856620       0.00000000
C       12.50000000       8.66025404       0.00000000
C       12.50000000      10.10362971       0.00000000
C       11.25000000      10.82531755       0.00000000
C       11.25000000      12.26869322       0.00000000
C       10.00000000      12.99038106       0.00000000
C       10.00000000      14.43375673       0.00000000
C        8.75000000      15.15544457       0.00000000
C        8.75000000      16.59882024       0.00000000
C        7.50000000      17.32050808       0.00000000
C        7.50000000      18.76388375       0.00000000
C        6.25000000      19.48557159       0.00000000
C        6.25000000      20.92894726       0.00000000
C        5.00000000      21.65063509       0.00000000
C        5.00000000      23.09401077       0.00000000
C        3.75000000      23.81569860       0.00000000
C        3.75000000      25.25907428       0.00000000
C       20.00000000       0.00000000       0.00000000
C       20.00000000       1.44337567       0.00000000
C       18.75000000       2.16506351       0.00000000
C       18.75000000       3.60843918       0.00000000
C       17.50000000       4.33012702       0.00000000
C       17.50000000       5.77350269       0.00000000
C       16.25000000       6.49519053       0.00000000
C       16.25000000       7.93856620       0.00000000
C       15.00000000       8.66025404       0.00000000
C       15.00000000      10.10362971       0.00000000
C       13.75000000      10.82531755       0.00000000
C       13.75000000      12.26869322       0.00000000
C       12.50000000      12.99038106       0.00000000
C       12.50000000      14.43375673       0.00000000
C       11.25000000      15.15544457       0.00000000
C       11.25000000      16.59882024       0.00000000
C       10.00000000      17.32050808       0.00000000
C       10.00000000      18.76388375       0.00000000
C        8.75000000      19.48557159       0.00000000
C        8.75000000      20.92894726       0.00000000
C        7.50000000      21.65063509       0.00000000
C        7.50000000      23.09401077       0.00000000
C        6.25000000      23.81569860       0.00000000
C        6.25000000      25.25907428       0.00000000
C       22.50000000       0.00000000       0.00000000
C       22.50000000       1.44337567       0.00000000
C       21.25000000       2.16506351       0.00000000
C       21.25000000       3.60843918       0.00000000
C       20.00000000       4.33012702       0.00000000
C       20.00000000       5.77350269       0.00000000
C       18.75000000       6.49519053       0.00000000
C       18.75000000       7.93856620       0.00000000
C       17.50000000       8.66025404       0.00000000
C       17.50000000      10.10362971       0.00000000
C       16.25000000      10.82531755       0.00000000
C       16.25000000      12.26869322       0.00000000
C       15.00000000      12.99038106       0.00000000
C       15.00000000      14.43375673       0.00000000
C       13.75000000      15.15544457       0.00000000
C       13.75000000      16.59882024       0.00000000
C       12.50000000      17.32050808       0.00000000
C       12.50000000      18.76388375       0.00000000
C       11.25000000      19.48557159       0.00000000
C       11.25000000      20.92894726       0.00000000
C       10.00000000      21.65063509       0.00000000
C       10.00000000      23.09401077       0.00000000
C        8.75000000      23.81569860       0.00000000
C        8.75000000      25.25907428       0.00000000
C       25.00000000       0.00000000       0.00000000
C       25.00000000       1.44337567       0.00000000
C       23.75000000       2.16506351       0.00000000
C       23.75000000       3.60843918       0.00000000
C       22.50000000       4.33012702       0.00000000
C       22.50000000       5.77350269       0.00000000
C       21.25000000       6.49519053       0.00000000
C       21.25000000       7.93856620       0.00000000
C       20.00000000       8.66025404       0.00000000
C       20.00000000      10.10362971       0.00000000
C       18.75000000      10.82531755       0.00000000
C       18.75000000      12.26869322       0.00000000
C       17.50000000      12.99038106       0.00000000
C       17.50000000      14.43375673       0.00000000
C       16.25000000      15.15544457       0.00000000
C       16.25000000      16.59882024       0.00000000
C       15.00000000      17.32050808       0.00000000
C       15.00000000      18.76388375       0.00000000
C       13.75000000      19.48557159       0.00000000
C       13.75000000      20.92894726       0.00000000
C       12.50000000      21.65063509       0.00000000
C       12.50000000      23.09401077       0.00000000
C       11.25000000      23.81569860       0.00000000
C       11.25000000      25.25907428       0.00000000
C       27.50000000       0.00000000       0.00000000
C       27.50000000       1.44337567       0.00000000
C       26.25000000       2.16506351       0.00000000
C       26.25000000       3.60843918       0.00000000
C       25.00000000       4.33012702       0.00000000
C       25.00000000       5.77350269       0.00000000
C       23.75000000       6.49519053       0.00000000
C       23.75000000       7.93856620       0.00000000
C       22.50000000       8.66025404       0.00000000
C       22.50000000      10.10362971       0.00000000
C       21.25000000      10.82531755       0.00000000
C       21.25000000      12.26869322       0.00000000
C       20.00000000      12.99038106       0.00000000
C       20.00000000      14.43375673       0.00000000
C       18.75000000      15.15544457       0.00000000
C       18.75000000      16.59882024       0.00000000
C       17.50000000      17.32050808       0.00000000
C       17.50000000      18.76388375       0.00000000
C       16.25000000      19.48557159       0.00000000
C       16.25000000      20.92894726       0.00000000
C       15.00000000      21.65063509       0.00000000
C       15.00000000      23.09401077       0.00000000
C       13.75000000      23.81569860       0.00000000
C       13.75000000      25.25907428       0.00000000
C       30.00000000       0.00000000       0.00000000
C       30.00000000       1.44337567       0.00000000
C       28.75000000       2.16506351       0.00000000
C       28.75000000       3.60843918       0.00000000
C       27.50000000       4.33012702       0.00000000
C       27.50000000       5.77350269       0.00000000
C       26.25000000       6.49519053       0.00000000
C       26.25000000       7.93856620       0.00000000
C       25.00000000       8.66025404       0.00000000
C       25.00000000      10.10362971       0.00000000
C       23.75000000      10.82531755       0.00000000
C       23.75000000      12.26869322       0.00000000
C       22.50000000      12.99038106       0.00000000
C       22.50000000      14.43375673       0.00000000
C       21.25000000      15.15544457       0.00000000
C       21.25000000      16.59882024       0.00000000
C       20.00000000      17.32050808       0.00000000
C       20.00000000      18.76388375       0.00000000
C       18.75000000      19.48557159       0.00000000
C       18.75000000      20.92894726       0.00000000
C       17.50000000      21.65063509       0.00000000
C       17.50000000      23.09401077       0.00000000
C       16.25000000      23.81569860       0.00000000
C       16.25000000      25.25907428       0.00000000
C       32.50000000       0.00000000       0.00000000
C       32.50000000       1.44337567       0.00000000
C       31.25000000       2.16506351       0.00000000
C       31.25000000       3.60843918       0.00000000
C       30.00000000       4.33012702       0.00000000
C       30.00000000       5.77350269       0.00000000
C       28.75000000       6.49519053       0.00000000
C       28.75000000       7.93856620       0.00000000
C       27.50000000       8.66025404       0.00000000
C       27.50000000      10.10362971       0.00000000
C       26.25000000      10.82531755       0.00000000
C       26.25000000      12.26869322       0.00000000
C       25.00000000      12.99038106       0.00000000
C       25.00000000      14.43375673       0.00000000
C       23.75000000      15.15544457       0.00000000
C       23.75000000      16.59882024       0.00000000
C       22.50000000      17.32050808       0.00000000
C       22.50000000      18.76388375       0.00000000
C       21.25000000      19.48557159       0.00000000
C       21.25000000      20.92894726       0.00000000
C       20.00000000      21.65063509       0.00000000
C       20.00000000      23.09401077       0.00000000
C       18.75000000      23.81569860       0.00000000
C       18.75000000      25.25907428       0.00000000
C       35.00000000       0.00000000       0.00000000
C       35.00000000       1.44337567       0.00000000
C       33.75000000       2.16506351       0.00000000
C       33.75000000       3.60843918       0.00000000
C       32.50000000       4.33012702       0.00000000
C       32.50000000       5.77350269       0.00000000
C       31.25000000       6.49519053       0.00000000
C       31.25000000       7.93856620       0.00000000
C       30.00000000       8.66025404       0.00000000
C       30.00000000      10.10362971       0.00000000
C       28.75000000      10.82531755       0.00000000
C       28.75000000      12.26869322       0.00000000
C       27.50000000      12.99038106       0.00000000
C       27.50000000      14.43375673       0.00000000
C       26.25000000      15.15544457       0.00000000
C       26.25000000      16.59882024       0.00000000
C       25.00000000      17.32050808       0.00000000
C       25.00000000      18.76388375       0.00000000
C       23.75000000      19.48557159       0.00000000
C       23.75000000      20.92894726       0.00000000
C       22.50000000      21.65063509       0.00000000
C       22.50000000      23.09401077       0.00000000
C       21.25000000      23.81569860       0.00000000
C       21.25000000      25.25907428       0.00000000
C       37.50000000       0.00000000       0.00000000
C       37.50000000       1.44337567       0.00000000
C       36.25000000       2.16506351       0.00000000
C       36.25000000       3.60843918       0.00000000
C       35.00000000       4.33012702       0.00000000
C       35.00000000       5.77350269       0.00000000
C       33.75000000       6.49519053       0.00000000
C       33.75000000       7.93856620       0.00000000
C       32.50000000       8.66025404       0.00000000
C       32.50000000      10.10362971       0.00000000
C       31.25000000      10.82531755       0.00000000
C       31.25000000      12.26869322       0.00000000
C       30.00000000      12.99038106       0.00000000
C       30.00000000      14.43375673       0.00000000
C       28.75000000      15.15544457       0.00000000
C       28.75000000      16.59882024       0.00000000
C       27.50000000      17.32050808       0.00000000
C       27.50000000      18.76388375       0.00000000
C       26.25000000      19.48557159       0.00000000
C       26.25000000      20.92894726       0.00000000
C       25.00000000      21.65063509       0.00000000
C       25.00000000      23.09401077       0.00000000
C       23.75000000      23.81569860       0.00000000
C       23.75000000      25.25907428       0.00000000
C       40.00000000       0.00000000       0.00000000
C       40.00000000       1.44337567       0.00000000
C       38.75000000       2.16506351       0.00000000
C       38.75000000       3.60843918       0.00000000
C       37.50000000       4.33012702       0.00000000
C       37.50000000       5.77350269       0.00000000
C       36.25000000       6.49519053       0.00000000
C       36.25000000       7.93856620       0.00000000
C       35.00000000       8.66025404       0.00000000
C       35.00000000      10.10362971       0.00000000
C       33.75000000      10.82531755       0.00000000
C       33.75000000      12.26869322       0.00000000
C       32.50000000      12.99038106       0.00000000
C       32.50000000      14.43375673       0.00000000
C       31.25000000      15.15544457       0.00000000
C       31.25000000      16.59882024       0.00000000
C       30.00000000      17.32050808       0.00000000
C       30.00000000      18.76388375       0.00000000
C       28.75000000      19.48557159       0.00000000
C       28.75000000      20.92894726       0.00000000
C       27.50000000      21.65063509       0.00000000
C       27.50000000      23.09401077       0.00000000
C       26.25000000      23.81569860       0.00000000
C       26.25000000      25.25907428       0.00000000
C       42.50000000       0.00000000       0.00000000
C       42.50000000       1.44337567       0.00000000
C       41.25000000       2.16506351       0.00000000
C       41.25000000       3.60843918       0.00000000
C       40.00000000       4.33012702       0.00000000
C       40.00000000       5.77350269       0.00000000
C       38.75000000       6.49519053       0.00000000
C       38.75000000       7.93856620       0.00000000
C       37.50000000       8.66025404       0.00000000
C       37.50000000      10.10362971       0.00000000
C       36.25000000      10.82531755       0.00000000
C       36.25000000      12.26869322       0.00000000
C       35.00000000      12.99038106       0.00000000
C       35.00000000      14.43375673       0.00000000
C       33.75000000      15.15544457       0.00000000
C       33.75000000      16.59882024       0.00000000
C       32.50000000      17.32050808       0.00000000
C       32.50000000      18.76388375       0.00000000
C       31.25000000      19.48557159       0.00000000
C       31.25000000      20.92894726       0.00000000
C       30.00000000      21.65063509       0.00000000
C       30.00000000      23.09401077       0.00000000
C       28.75000000      23.81569860       0.00000000
C       28.75000000      25.25907428       0.00000000
C       45.00000000       0.00000000       0.00000000
C       45.00000000       1.44337567       0.00000000
C       43.75000000       2.16506351       0.00000000
C       43.75000000       3.60843918       0.00000000
C       42.50000000       4.33012702       0.00000000
C       42.50000000       5.77350269       0.00000000
C       41.25000000       6.49519053       0.00000000
C       41.25000000       7.93856620       0.00000000
C       40.00000000       8.66025404       0.00000000
C       40.00000000      10.10362971       0.00000000
C       38.75000000      10.82531755       0.00000000
C       38.75000000      12.26869322       0.00000000
C       37.50000000      12.99038106       0.00000000
C       37.50000000      14.43375673       0.00000000
C       36.25000000      15.15544457       0.00000000
C       36.25000000      16.59882024       0.00000000
C       35.00000000      17.32050808       0.00000000
C       35.00000000      18.76388375       0.00000000
C       33.75000000      19.48557159       0.00000000
C       33.75000000      20.92894726       0.00000000
C       32.50000000      21.65063509       0.00000000
C       32.50000000      23.09401077       0.00000000
C       31.25000000      23.81569860       0.00000000
C       31.25000000      25.25907428       0.00000000
C       47.50000000       0.00000000       0.00000000
C       47.50000000       1.44337567       0.00000000
C       46.25000000       2.16506351       0.00000000
C       46.25000000       3.60843918       0.00000000
C       45.00000000       4.33012702       0.00000000
C       45.00000000       5.77350269       0.00000000
C       43.75000000       6.49519053       0.00000000
C       43.75000000       7.93856620       0.00000000
C       42.50000000       8.66025404       0.00000000
C       42.50000000      10.10362971       0.00000000
C       41.25000000      10.82531755       0.00000000
C       41.25000000      12.26869322       0.00000000
C       40.00000000      12.99038106       0.00000000
C       40.00000000      14.43375673       0.00000000
C       38.75000000      15.15544457       0.00000000
C       38.75000000      16.59882024       0.00000000
C       37.50000000      17.32050808       0.00000000
C       37.50000000      18.76388375       0.00000000
C       36.25000000      19.48557159       0.00000000
C       36.25000000      20.92894726       0.00000000
C       35.00000000      21.65063509       0.00000000
C       35.00000000      23.09401077       0.00000000
C       33.75000000      23.81569860       0.00000000
C       33.75000000      25.25907428       0.00000000
C       50.00000000       0.00000000       0.00000000
C       50.00000000       1.44337567       0.00000000
C       48.75000000       2.16506351       0.00000000
C       48.75000000       3.60843918       0.00000000
C       47.50000000       4.33012702       0.00000000
C       47.50000000       5.77350269       0.00000000
C       46.25000000       6.49519053       0.00000000
C       46.25000000       7.93856620       0.00000000
C       45.00000000       8.66025404       0.00000000
C       45.00000000      10.10362971       0.00000000
C       43.75000000      10.82531755       0.00000000
C       43.75000000      12.26869322       0.00000000
C       42.50000000      12.99038106       0.00000000
C       42.50000000      14.43375673       0.00000000
C       41.25000000      15.15544457       0.00000000
C       41.25000000      16.59882024       0.00000000
C       40.00000000      17.32050808       0.00000000
C       40.00000000      18.76388375       0.00000000
C       38.75000000      19.48557159       0.00000000
C       38.75000000      20.92894726       0.00000000
C       37.50000000      21.65063509       0.00000000
C       37.50000000      23.09401077       0.00000000
C       36.25000000      23.81569860       0.00000000
C       36.25000000      25.25907428       0.00000000
C       52.50000000       0.00000000       0.00000000
C       52.50000000       1.44337567       0.00000000
C       51.25000000       2.16506351       0.00000000
C       51.25000000       3.60843918       0.00000000
C       50.00000000       4.33012702       0.00000000
C       50.00000000       5.77350269       0.00000000
C       48.75000000       6.49519053       0.00000000
C       48.75000000       7.93856620       0.00000000
C       47.50000000       8.66025404       0.00000000
C       47.50000000      10.10362971       0.00000000
C       46.25000000      10.82531755       0.00000000
C       46.25000000      12.26869322       0.00000000
C       45.00000000      12.99038106       0.00000000
C       45.00000000      14.43375673       0.00000000
C       43.75000000      15.15544457       0.00000000
C       43.75000000      16.59882024       0.00000000
C       42.50000000      17.32050808       0.00000000
C       42.50000000      18.76388375       0.00000000
C       41.25000000      19.48557159       0.00000000
C       41.25000000      20.92894726       0.00000000
C       40.00000000      21.65063509       0.00000000
C       40.00000000      23.09401077       0.00000000
C       38.75000000      23.81569860       0.00000000
C       38.75000000      25.25907428       0.00000000
C       55.00000000       0.00000000       0.00000000
C       55.00000000       1.44337567       0.00000000
C       53.75000000       2.16506351       0.00000000
C       53.75000000       3.60843918       0.00000000
C       52.50000000       4.33012702       0.00000000
C       52.50000000       5.77350269       0.00000000
C       51.25000000       6.49519053       0.00000000
C       51.25000000       7.93856620       0.00000000
C       50.00000000       8.66025404       0.00000000
C       50.00000000      10.10362971       0.00000000
C       48.75000000      10.82531755       0.00000000
C       48.75000000      12.26869322       0.00000000
C       47.50000000      12.99038106       0.00000000
C       47.50000000      14.43375673       0.00000000
C       46.25000000      15.15544457       0.00000000
C       46.25000000      16.59882024       0.00000000
C       45.00000000      17.32050808       0.00000000
C       45.00000000      18.76388375       0.00000000
C       43.75000000      19.48557159       0.00000000
C       43.75000000      20.92894726       0.00000000
C       42.50000000      21.65063509       0.00000000
C       42.50000000      23.09401077       0.00000000
C       41.25000000      23.81569860       0.00000000
C       41.25000000      25.25907428       0.00000000
C       57.50000000       0.00000000       0.00000000
C       57.50000000       1.44337567       0.00000000
C       56.25000000       2.16506351       0.00000000
C       56.25000000       3.60843918       0.00000000
C       55.00000000       4.33012702       0.00000000
C       55.00000000       5.77350269       0.00000000
C       53.75000000       6.49519053       0.00000000
C       53.75000000       7.93856620       0.00000000
C       52.50000000       8.66025404       0.00000000
C       52.50000000      10.10362971       0.00000000
C       51.25000000      10.82531755       0.00000000
C       51.25000000      12.26869322       0.00000000
C       50.00000000      12.99038106       0.00000000
C       50.00000000      14.43375673       0.00000000
C       48.75000000      15.15544457       0.00000000
C       48.75000000      16.59882024       0.00000000
C       47.50000000      17.32050808       0.00000000
C       47.50000000      18.76388375       0.00000000
C       46.25000000      19.48557159       0.00000000
C       46.25000000      20.92894726       0.00000000
C       45.00000000      21.65063509       0.00000000
C       45.00000000      23.09401077       0.00000000
C       43.75000000      23.81569860       0.00000000
C       43.75000000      25.25907428       0.00000000
C       60.00000000       0.00000000       0.00000000
C       60.00000000       1.44337567       0.00000000
C       58.75000000       2.16506351       0.00000000
C       58.75000000       3.60843918       0.00000000
C       57.50000000       4.33012702       0.00000000
C       57.50000000       5.77350269       0.00000000
C       56.25000000       6.49519053       0.00000000
C       56.25000000       7.93856620       0.00000000
C       55.00000000       8.66025404       0.00000000
C       55.00000000      10.10362971       0.00000000
C       53.75000000      10.82531755       0.00000000
C       53.75000000      12.26869322       0.00000000
C       52.50000000      12.99038106       0.00000000
C       52.50000000      14.43375673       0.00000000
C       51.25000000      15.15544457       0.00000000
C       51.25000000      16.59882024       0.00000000
C       50.00000000      17.32050808       0.00000000
C       50.00000000      18.76388375       0.00000000
C       48.75000000      19.48557159       0.00000000
C       48.75000000      20.92894726       0.00000000
C       47.50000000      21.65063509       0.00000000
C       47.50000000      23.09401077       0.00000000
C       46.25000000      23.81569860       0.00000000
C       46.25000000      25.25907428       0.00000000
